Version 4.1
SHEET 1 1076 1016
WIRE 384 32 176 32
WIRE 80 96 -288 96
WIRE 176 96 176 32
WIRE 288 96 240 96
WIRE 384 96 384 32
WIRE 240 176 240 96
WIRE 432 176 240 176
WIRE 432 208 432 176
WIRE 464 208 432 208
WIRE 480 208 464 208
WIRE 768 208 560 208
WIRE 1072 208 768 208
WIRE 0 224 -64 224
WIRE 160 224 160 144
WIRE 160 224 80 224
WIRE 368 224 368 144
WIRE 368 224 160 224
WIRE -64 240 -64 224
WIRE 768 240 768 208
WIRE -64 336 -64 304
WIRE 768 336 768 304
WIRE 368 352 368 224
WIRE 464 352 464 208
WIRE 560 352 560 208
WIRE -288 416 -288 96
WIRE 192 416 -288 416
WIRE 304 416 192 416
WIRE 192 432 192 416
WIRE -288 480 -288 416
WIRE 304 512 192 512
WIRE 192 528 192 512
WIRE 304 608 192 608
WIRE 720 624 624 624
WIRE 192 704 192 688
WIRE 304 704 192 704
WIRE 720 704 720 624
WIRE 192 832 192 784
WIRE 464 832 464 768
WIRE 720 832 720 768
WIRE -288 992 -288 560
WIRE 1072 992 1072 208
WIRE 1072 992 -288 992
FLAG 192 832 0
FLAG 464 832 0
FLAG 720 832 0
FLAG -64 336 0
FLAG 768 336 0
SYMBOL nmos 80 144 R270
SYMATTR InstName M1
SYMATTR Value IPT015N10N5
SYMBOL nmos 288 144 R270
SYMATTR InstName M2
SYMATTR Value IPT015N10N5
SYMBOL SpecialFunctions\\LTC4368-1 464 560 R0
SYMATTR InstName U1
SYMBOL res 576 192 R90
WINDOW 0 0 56 VBottom 2
WINDOW 3 32 56 VTop 2
SYMATTR InstName R1
SYMATTR Value 0.5m
SYMBOL res 176 592 R0
SYMATTR InstName R3
SYMATTR Value 100k
SYMBOL res 176 688 R0
SYMATTR InstName R4
SYMATTR Value 200k
SYMBOL cap 704 704 R0
SYMATTR InstName C1
SYMATTR Value 22n
SYMBOL res 96 208 R90
WINDOW 0 0 56 VBottom 2
WINDOW 3 32 56 VTop 2
SYMATTR InstName R5
SYMATTR Value 22k
SYMBOL cap -80 240 R0
SYMATTR InstName C2
SYMATTR Value 3.3n
SYMBOL voltage -288 464 R0
WINDOW 123 0 0 Left 0
WINDOW 39 24 124 Left 2
SYMATTR SpiceLine Rser=50m
SYMATTR InstName V1
SYMATTR Value PULSE(0 55 1u 1u 1u 10m 20m 1)
SYMBOL cap 752 240 R0
SYMATTR InstName C3
SYMATTR Value 35µ
SYMBOL res 176 416 R0
SYMATTR InstName R2
SYMATTR Value 100k
SYMBOL res 176 512 R0
SYMATTR InstName R6
SYMATTR Value 21400k
TEXT -320 1000 Left 2 !.tran 10ms
